# Packages
 &PACKAGES
 useDiagnostics=.TRUE.,
 useRBCs=.FALSE.,
 useOBCS=.TRUE.,
 useShelfIce=.TRUE.,
 &
