# ====================
# | Model parameters |
# ====================
#
# Continuous equation parameters
 &PARM01
# cold thermocline
 Tref =-1.900e+00,-1.900e+00,-1.900e+00,-1.900e+00,-1.900e+00,
	-1.900e+00,-1.900e+00,-1.900e+00,-1.900e+00,-1.900e+00,
	-1.900e+00,-1.900e+00,-1.900e+00,-1.900e+00,-1.900e+00,
	-1.900e+00,-1.900e+00,-1.900e+00,-1.900e+00,-1.900e+00,
	-1.900e+00,-1.900e+00,-1.900e+00,-1.900e+00,-1.900e+00,
	-1.900e+00,-1.900e+00,-1.900e+00,-1.900e+00,-1.900e+00,
	-1.900e+00,-1.900e+00,-1.900e+00,-1.900e+00,-1.900e+00,
	-1.900e+00,-1.900e+00,-1.900e+00,-1.900e+00,-1.900e+00,
	-1.900e+00,-1.900e+00,-1.900e+00,-1.900e+00,
 Sref =3.450e+01,3.450e+01,3.450e+01,3.450e+01,3.450e+01,
	3.450e+01,3.450e+01,3.450e+01,3.450e+01,3.450e+01,
	3.450e+01,3.450e+01,3.450e+01,3.450e+01,3.450e+01,
	3.450e+01,3.450e+01,3.450e+01,3.450e+01,3.450e+01,
	3.450e+01,3.450e+01,3.450e+01,3.450e+01,3.450e+01,
	3.450e+01,3.450e+01,3.450e+01,3.450e+01,3.450e+01,
	3.450e+01,3.450e+01,3.450e+01,3.450e+01,3.450e+01,
	3.450e+01,3.450e+01,3.450e+01,3.450e+01,3.450e+01,
	3.450e+01,3.450e+01,3.450e+01,3.450e+01,
# warm thermocline
# Tref =-1.400e+00,-1.400e+00,-1.400e+00,-1.400e+00,-1.400e+00,
#	-1.400e+00,-1.400e+00,-1.400e+00,-1.400e+00,-1.400e+00,
#	-1.400e+00,-1.400e+00,-1.400e+00,-1.400e+00,-1.400e+00,
#	-1.400e+00,-1.400e+00,-1.400e+00,-1.400e+00,-1.400e+00,
#	-1.400e+00,-1.400e+00,-1.400e+00,-1.400e+00,-1.400e+00,
#	-1.400e+00,-1.400e+00,-1.400e+00,-1.400e+00,-1.400e+00,
#	-1.400e+00,-1.400e+00,-1.400e+00,-1.400e+00,-1.400e+00,
#	-1.400e+00,-1.400e+00,-1.400e+00,-1.400e+00,-1.400e+00,
#	-1.400e+00,-1.400e+00,-1.400e+00,-1.400e+00,
# Sref =3.450e+01,3.450e+01,3.450e+01,3.450e+01,3.450e+01,
#	3.450e+01,3.450e+01,3.450e+01,3.450e+01,3.450e+01,
#	3.450e+01,3.450e+01,3.450e+01,3.450e+01,3.450e+01,
#	3.450e+01,3.450e+01,3.450e+01,3.450e+01,3.450e+01,
#	3.450e+01,3.450e+01,3.450e+01,3.450e+01,3.450e+01,
#	3.450e+01,3.450e+01,3.450e+01,3.450e+01,3.450e+01,
#	3.450e+01,3.450e+01,3.450e+01,3.450e+01,3.450e+01,
#	3.450e+01,3.450e+01,3.450e+01,3.450e+01,3.450e+01,
#	3.450e+01,3.450e+01,3.450e+01,3.450e+01,
# Tref=50*2.0e+00,
# Sref=50*34.0e+00,
 viscAr=1.E-3,
 viscAh=50.0,
 diffKhT=10.0,
 diffKrT=1.E-4,
 diffKhS=10.0,
 diffKrS=1.E-4,
 bottomDragQuadratic=2.5E-3,
#
# eosType='JMD95Z', 
# eosType='LINEAR',
 eosType='MDJWF', 
 rhoNil=1030.0,
 tAlpha=3.90E-5
 sBeta =7.41E-4,
# tAlpha=3.87E-5
# sBeta =7.86E-4,
 HeatCapacity_cp = 3974.0,
 rhoConst=1030.,
 gravity=9.81,
 convertFW2Salt = -1,
#
 selectCoriMap=0,
 f0=-1.4e-4,
 beta=0.0,
 no_slip_sides=.FALSE.,
 no_slip_bottom=.FALSE.,
 rigidLid=.FALSE.,
 implicitFreeSurface=.TRUE.,
 nonlinFreeSurf=4,
 exactConserv=.TRUE.,
 useCDScheme = .FALSE.,
 nonHydrostatic=.FALSE.,
 hFacMin=0.30,
 hFacInf=0.05,
 hFacSup=2.0,
 useRealFreshWaterFlux=.TRUE.,
 staggerTimeStep = .TRUE.,
 tempAdvScheme = 77,
 saltAdvScheme = 77,
 useSingleCPUio = .TRUE.,
 readBinaryPrec=64,
 &

# Elliptic solver parameters
 &PARM02
 cg2dTargetResidual=1.E-07,
 cg2dMaxIters=150.,
 &

# Time stepping parameters
 &PARM03
#
 nIter0=0,
# 6 mins
# endTime=360.0,
# 18 mins
# endTime=1080.0,
# 10 days
# endTime=864000.0,
# 30 days
# endTime=2592000.0,
# 180 days
# endTime=15552000.0,
# 360 days
 endTime=31104000.0,
# 2*360 days
# endTime=62208000.0,
# 5*360 days
# endTime=155520000.0,
# 10*360 days
# endTime=311040000.0,
# 60*360 days
# endTime=1866240000.0,
#
 deltaT=60.0,
 abEps=0.1,
 cAdjFreq = -1.,
# tauCD = 400000.,
#
 pChkptFreq=0.0,
 pickupStrictlyMatch=.TRUE.,
# pickupSuff='ckptB',
# 1 day
# chkptFreq=86400.0,
# 30 days
 chkptFreq=2592000.0,
#
 dumpFreq=0.0,
 dumpInitAndLast=.FALSE.,
 taveFreq=0.0,
# delta T
 monitorFreq=60.,
# 30 days
# monitorFreq=2592000.,
 monitorSelect=1,
 &

# Gridding parameters
 &PARM04
 usingCartesianGrid=.FALSE.,
 usingSphericalPolarGrid=.TRUE.,
# delX=400*1000.,
# delY=480*1000.,
 delR=44*20.0,
 ygOrigin=-69.90,
 xgOrigin=294,
 dXspacing=.05,
 delY=0.017266263303361,0.017280469727152,
   	0.017294686241822,0.017308912850421,
	0.017323149555987,0.017337396361548,
   	0.017351653270120,0.017365920284709,
   	0.017380197408310,0.017394484643907,
  	0.017408781994473,0.017423089462970,
 	0.017437407052349,0.017451734765550,
  	0.017466072605501,0.017480420575119,
   	0.017494778677312,0.017509146914973,
   	0.017523525290987,0.017537913808226,
   	0.017552312469551,0.017566721277812,
   	0.017581140235845,0.017595569346479,
   	0.017610008612529,0.017624458036797,
   	0.017638917622075,0.017653387371145,
   	0.017667867286774,0.017682357371719,
  	0.017696857628725,0.017711368060527,
  	0.017725888669844,0.017740419459387,
   	0.017754960431853,0.017769511589928,
   	0.017784072936286,0.017798644473588,
   	0.017813226204483,0.017827818131610,
   	0.017842420257593,0.017857032585046,
   	0.017871655116569,0.017886287854751,
   	0.017900930802167,0.017915583961383,
   	0.017930247334949,0.017944920925404,
   	0.017959604735275,0.017974298767076,
   	0.017989003023307,0.018003717506459,
   	0.018018442219007,0.018033177163415,
   	0.018047922342132,0.018062677757599,
   	0.018077443412238,0.018092219308463,
   	0.018107005448673,0.018121801835255,
   	0.018136608470582,0.018151425357014,
   	0.018166252496899,0.018181089892571,
   	0.018195937546351,0.018210795460548,
   	0.018225663637455,0.018240542079354,
   	0.018255430788514,0.018270329767189,
   	0.018285239017621,0.018300158542036,
   	0.018315088342651,0.018330028421665,
  	0.018344978781265,0.018359939423627,
   	0.018374910350909,0.018389891565258,
   	0.018404883068807,0.018419884863673,
   	0.018434896951964,0.018449919335768,
   	0.018464952017164,0.018479994998214,
   	0.018495048280969,0.018510111867462,
   	0.018525185759715,0.018540269959736,
   	0.018555364469516,0.018570469291034,
   	0.018585584426254,0.018600709877127,
   	0.018615845645587,0.018630991733556,
   	0.018646148142941,0.018661314875634,
   	0.018676491933513,0.018691679318439,
   	0.018706877032263,0.018722085076818,
   	0.018737303453922,0.018752532165381,
   	0.018767771212983,0.018783020598504,
   	0.018798280323703,0.018813550390324,
   	0.018828830800098,0.018844121554739,
   	0.018859422655948,0.018874734105408,
   	0.018890055904789,0.018905388055746,
   	0.018920730559916,0.018936083418924,
   	0.018951446634379,0.018966820207872,
   	0.018982204140981,0.018997598435268,
   	0.019013003092280,0.019028418113547,
   	0.019043843500585,0.019059279254892,
   	0.019074725377953,0.019090181871235,
   	0.019105648736191,0.019121125974256,
   	0.019136613586852,0.019152111575383,
   	0.019167619941236,0.019183138685785,
   	0.019198667810385,0.019214207316377,
   	0.019229757205084,0.019245317477814,
   	0.019260888135858,0.019276469180491,
   	0.019292060612973,0.019307662434543,
   	0.019323274646430,0.019338897249841,
   	0.019354530245969,0.019370173635990,
   	0.019385827421063,0.019401491602331,
   	0.019417166180919,0.019432851157936,
   	0.019448546534474,0.019464252311609,
   	0.019479968490397,0.019495695071881,
   	0.019511432057084,0.019527179447013,
   	0.019542937242657,0.019558705444990,
   	0.019574484054966,0.019590273073524,
   	0.019606072501583,0.019621882340046,
   	0.019637702589800,0.019653533251713,
   	0.019669374326634,0.019685225815397,
   	0.019701087718817,0.019716960037692,
   	0.019732842772801,0.019748735924906,
   	0.019764639494750,0.019780553483062,
   	0.019796477890547,0.019812412717897,
   	0.019828357965784,0.019844313634860,
   	0.019860279725763,0.019876256239110,
   	0.019892243175499,0.019908240535512,
   	0.019924248319711,0.019940266528640,
   	0.019956295162825,0.019972334222773,
   	0.019988383708972,0.020004443621892,
   	0.020020513961985,0.020036594729682,
   	0.020052685925397,0.020068787549525,
   	0.020084899602442,0.020101022084505,
   	0.020117154996051,0.020133298337399,
   	0.020149452108849,0.020165616310682,
   	0.020181790943159,0.020197976006521,
   	0.020214171500992,0.020230377426775,
   	0.020246593784054,0.020262820572993,
   	0.020279057793738,0.020295305446413,
   	0.020311563531125,0.020327832047958,
   	0.020344110996980,0.020360400378237,
   	0.020376700191756,0.020393010437542,
   	0.020409331115584,0.020425662225847,
   	0.020442003768279,0.020458355742805,
   	0.020474718149332,0.020491090987746,
   	0.020507474257913,0.020523867959678,
   	0.020540272092867,0.020556686657284,
   	0.020573111652713,0.020589547078917,
   	0.020605992935640,0.020622449222604,
   	0.020638915939510,0.020655393086039,
   	0.020671880661851,0.020688378666585,
   	0.020704887099859,0.020721405961270,
   	0.020737935250394,0.020754474966786,
   	0.020771025109980,0.020787585679487,
   	0.020804156674801,0.020820738095389,
   	0.020837329940701,0.020853932210164,
   	0.020870544903183,0.020887168019142,
   	0.020903801557404,0.020920445517309,
   	0.020937099898176,0.020953764699302,

 &

 Input datasets
 &PARM05
 bathyFile='bathy.bin',
 &
